<?xml version='1.0' encoding='utf8'?><configuration><input><net-file value="C:\Users\roger\OneDrive\RESEARCH\SUMO_simulation\isolated\grid_1_1_300_300_300_2_10.net.xml"/><route-files value="C:\Users\roger\OneDrive\RESEARCH\SUMO_simulation\isolated\corridor.rou.xml"/></input><output><fcd-output value="C:\Users\roger\OneDrive\RESEARCH\SUMO_simulation\isolated\output\output_fcd.xml"/><fcd-output.attributes value="lane,odometer"/><fcd-output.distance value="true"/><device.fcd.period value="1"/></output><time><begin value="0"/><end value="7200"/></time><random_state><seed value="5"/></random_state><processing><step-method.ballistic value="true"/><ignore-junction-blocker value="7200"/><collision.action value="warn"/><lateral-resolution value="1.6"/><time-to-teleport value="-1"/></processing></configuration>