<?xml version='1.0' encoding='utf8'?><routes><vType accel="2.6" carFollowModel="Krauss" decel="3.0" id="type1" length="5" maxSpeed="55.55" sigma="0.5" jmStoplineGap="1.0"/><flow begin="0.00" end="7200" from="left0A0" departLane="0" id="left0A0_0" probability="0.125" type="type1"/><flow begin="0.00" end="7200" from="left0A0" departLane="1" id="left0A0_1" probability="0.125" type="type1"/><flow begin="0.00" end="7200" from="right0A0" departLane="0" id="right0A0_0" probability="0.027777777777777776" type="type1"/><flow begin="0.00" end="7200" from="right0A0" departLane="1" id="right0A0_1" probability="0.027777777777777776" type="type1"/><flow begin="0.00" end="7200" from="bottom0A0" departLane="0" id="bottom0A0_0" probability="0.06944444444444445" type="type1"/><flow begin="0.00" end="7200" from="bottom0A0" departLane="1" id="bottom0A0_1" probability="0.06944444444444445" type="type1"/><flow begin="0.00" end="7200" from="top0A0" departLane="0" id="top0A0_0" probability="0.027777777777777776" type="type1"/><flow begin="0.00" end="7200" from="top0A0" departLane="1" id="top0A0_1" probability="0.027777777777777776" type="type1"/></routes>