<?xml version="1.0" encoding="UTF-8"?>

<!-- generated on 2022-11-27 17:44:59 by Eclipse SUMO jtrrouter Version 1.13.0
<configuration xmlns:xsi="http://www.w3.org/2001/XMLSchema-instance" xsi:noNamespaceSchemaLocation="http://sumo.dlr.de/xsd/jtrrouterConfiguration.xsd">

    <input>
        <net-file value="C:\Users\roger\OneDrive\RESEARCH\SUMO_simulation\isolated\grid_1_1_300_300_300_2_10.net.xml"/>
        <route-files value="C:\Users\roger\OneDrive\RESEARCH\SUMO_simulation\isolated\corridor_flows.rou.xml"/>
    </input>

    <output>
        <output-file value="C:\Users\roger\OneDrive\RESEARCH\SUMO_simulation\isolated\corridor.rou.xml"/>
    </output>

    <processing>
        <no-internal-links value="true"/>
        <turn-defaults value="0,100,0"/>
        <sink-edges value="A0right0,A0left0,A0top0,A0bottom0"/>
    </processing>

    <time>
        <begin value="0"/>
        <end value="7200"/>
    </time>

    <random_number>
        <seed value="5"/>
    </random_number>

</configuration>
-->

<routes xmlns:xsi="http://www.w3.org/2001/XMLSchema-instance" xsi:noNamespaceSchemaLocation="http://sumo.dlr.de/xsd/routes_file.xsd">
    <vType id="type1" length="5.00" maxSpeed="55.55" jmStoplineGap="1.0" carFollowModel="Krauss" accel="2.6" decel="3.0" sigma="0.5"/>
    <vehicle id="bottom0A0_0.0" type="type1" depart="1.00" departLane="0">
        <route edges="bottom0A0 A0top0"/>
    </vehicle>
    <vehicle id="left0A0_0.0" type="type1" depart="2.00" departLane="0">
        <route edges="left0A0 A0right0"/>
    </vehicle>
    <vehicle id="top0A0_1.0" type="type1" depart="3.00" departLane="1">
        <route edges="top0A0 A0bottom0"/>
    </vehicle>
    <vehicle id="bottom0A0_1.0" type="type1" depart="4.00" departLane="1">
        <route edges="bottom0A0 A0top0"/>
    </vehicle>
    <vehicle id="left0A0_1.0" type="type1" depart="4.00" departLane="1">
        <route edges="left0A0 A0right0"/>
    </vehicle>
    <vehicle id="top0A0_1.1" type="type1" depart="4.00" departLane="1">
        <route edges="top0A0 A0bottom0"/>
    </vehicle>
    <vehicle id="left0A0_0.1" type="type1" depart="6.00" departLane="0">
        <route edges="left0A0 A0right0"/>
    </vehicle>
    <vehicle id="left0A0_1.1" type="type1" depart="13.00" departLane="1">
        <route edges="left0A0 A0right0"/>
    </vehicle>
    <vehicle id="right0A0_0.0" type="type1" depart="13.00" departLane="0">
        <route edges="right0A0 A0left0"/>
    </vehicle>
    <vehicle id="left0A0_1.2" type="type1" depart="18.00" departLane="1">
        <route edges="left0A0 A0right0"/>
    </vehicle>
    <vehicle id="left0A0_0.2" type="type1" depart="19.00" departLane="0">
        <route edges="left0A0 A0right0"/>
    </vehicle>
    <vehicle id="right0A0_1.0" type="type1" depart="20.00" departLane="1">
        <route edges="right0A0 A0left0"/>
    </vehicle>
    <vehicle id="right0A0_1.1" type="type1" depart="21.00" departLane="1">
        <route edges="right0A0 A0left0"/>
    </vehicle>
    <vehicle id="left0A0_1.3" type="type1" depart="24.00" departLane="1">
        <route edges="left0A0 A0right0"/>
    </vehicle>
    <vehicle id="top0A0_1.2" type="type1" depart="26.00" departLane="1">
        <route edges="top0A0 A0bottom0"/>
    </vehicle>
    <vehicle id="left0A0_1.4" type="type1" depart="30.00" departLane="1">
        <route edges="left0A0 A0right0"/>
    </vehicle>
    <vehicle id="left0A0_1.5" type="type1" depart="32.00" departLane="1">
        <route edges="left0A0 A0right0"/>
    </vehicle>
    <vehicle id="left0A0_1.6" type="type1" depart="33.00" departLane="1">
        <route edges="left0A0 A0right0"/>
    </vehicle>
    <vehicle id="left0A0_0.3" type="type1" depart="35.00" departLane="0">
        <route edges="left0A0 A0right0"/>
    </vehicle>
    <vehicle id="left0A0_1.7" type="type1" depart="36.00" departLane="1">
        <route edges="left0A0 A0right0"/>
    </vehicle>
    <vehicle id="top0A0_0.0" type="type1" depart="37.00" departLane="0">
        <route edges="top0A0 A0bottom0"/>
    </vehicle>
    <vehicle id="left0A0_0.4" type="type1" depart="40.00" departLane="0">
        <route edges="left0A0 A0right0"/>
    </vehicle>
    <vehicle id="bottom0A0_0.1" type="type1" depart="43.00" departLane="0">
        <route edges="bottom0A0 A0top0"/>
    </vehicle>
    <vehicle id="top0A0_0.1" type="type1" depart="45.00" departLane="0">
        <route edges="top0A0 A0bottom0"/>
    </vehicle>
    <vehicle id="left0A0_1.8" type="type1" depart="49.00" departLane="1">
        <route edges="left0A0 A0right0"/>
    </vehicle>
    <vehicle id="top0A0_0.2" type="type1" depart="50.00" departLane="0">
        <route edges="top0A0 A0bottom0"/>
    </vehicle>
    <vehicle id="left0A0_1.9" type="type1" depart="51.00" departLane="1">
        <route edges="left0A0 A0right0"/>
    </vehicle>
    <vehicle id="right0A0_1.2" type="type1" depart="51.00" departLane="1">
        <route edges="right0A0 A0left0"/>
    </vehicle>
    <vehicle id="left0A0_0.5" type="type1" depart="57.00" departLane="0">
        <route edges="left0A0 A0right0"/>
    </vehicle>
    <vehicle id="right0A0_0.1" type="type1" depart="58.00" departLane="0">
        <route edges="right0A0 A0left0"/>
    </vehicle>
    <vehicle id="left0A0_1.10" type="type1" depart="59.00" departLane="1">
        <route edges="left0A0 A0right0"/>
    </vehicle>
    <vehicle id="bottom0A0_0.2" type="type1" depart="60.00" departLane="0">
        <route edges="bottom0A0 A0top0"/>
    </vehicle>
    <vehicle id="bottom0A0_1.1" type="type1" depart="60.00" departLane="1">
        <route edges="bottom0A0 A0top0"/>
    </vehicle>
    <vehicle id="left0A0_0.6" type="type1" depart="60.00" departLane="0">
        <route edges="left0A0 A0right0"/>
    </vehicle>
    <vehicle id="left0A0_0.7" type="type1" depart="67.00" departLane="0">
        <route edges="left0A0 A0right0"/>
    </vehicle>
    <vehicle id="bottom0A0_0.3" type="type1" depart="68.00" departLane="0">
        <route edges="bottom0A0 A0top0"/>
    </vehicle>
    <vehicle id="bottom0A0_1.2" type="type1" depart="68.00" departLane="1">
        <route edges="bottom0A0 A0top0"/>
    </vehicle>
    <vehicle id="left0A0_1.11" type="type1" depart="71.00" departLane="1">
        <route edges="left0A0 A0right0"/>
    </vehicle>
    <vehicle id="top0A0_0.3" type="type1" depart="71.00" departLane="0">
        <route edges="top0A0 A0bottom0"/>
    </vehicle>
    <vehicle id="bottom0A0_0.4" type="type1" depart="72.00" departLane="0">
        <route edges="bottom0A0 A0top0"/>
    </vehicle>
    <vehicle id="top0A0_0.4" type="type1" depart="73.00" departLane="0">
        <route edges="top0A0 A0bottom0"/>
    </vehicle>
    <vehicle id="left0A0_1.12" type="type1" depart="74.00" departLane="1">
        <route edges="left0A0 A0right0"/>
    </vehicle>
    <vehicle id="bottom0A0_0.5" type="type1" depart="79.00" departLane="0">
        <route edges="bottom0A0 A0top0"/>
    </vehicle>
    <vehicle id="right0A0_0.2" type="type1" depart="82.00" departLane="0">
        <route edges="right0A0 A0left0"/>
    </vehicle>
    <vehicle id="bottom0A0_0.6" type="type1" depart="88.00" departLane="0">
        <route edges="bottom0A0 A0top0"/>
    </vehicle>
    <vehicle id="bottom0A0_1.3" type="type1" depart="88.00" departLane="1">
        <route edges="bottom0A0 A0top0"/>
    </vehicle>
    <vehicle id="left0A0_0.8" type="type1" depart="88.00" departLane="0">
        <route edges="left0A0 A0right0"/>
    </vehicle>
    <vehicle id="left0A0_0.9" type="type1" depart="89.00" departLane="0">
        <route edges="left0A0 A0right0"/>
    </vehicle>
    <vehicle id="left0A0_0.10" type="type1" depart="91.00" departLane="0">
        <route edges="left0A0 A0right0"/>
    </vehicle>
    <vehicle id="top0A0_0.5" type="type1" depart="92.00" departLane="0">
        <route edges="top0A0 A0bottom0"/>
    </vehicle>
    <vehicle id="bottom0A0_0.7" type="type1" depart="93.00" departLane="0">
        <route edges="bottom0A0 A0top0"/>
    </vehicle>
    <vehicle id="left0A0_1.13" type="type1" depart="93.00" departLane="1">
        <route edges="left0A0 A0right0"/>
    </vehicle>
    <vehicle id="top0A0_0.6" type="type1" depart="93.00" departLane="0">
        <route edges="top0A0 A0bottom0"/>
    </vehicle>
    <vehicle id="left0A0_0.11" type="type1" depart="95.00" departLane="0">
        <route edges="left0A0 A0right0"/>
    </vehicle>
    <vehicle id="bottom0A0_1.4" type="type1" depart="97.00" departLane="1">
        <route edges="bottom0A0 A0top0"/>
    </vehicle>
    <vehicle id="right0A0_0.3" type="type1" depart="98.00" departLane="0">
        <route edges="right0A0 A0left0"/>
    </vehicle>
    <vehicle id="top0A0_1.3" type="type1" depart="102.00" departLane="1">
        <route edges="top0A0 A0bottom0"/>
    </vehicle>
    <vehicle id="bottom0A0_0.8" type="type1" depart="104.00" departLane="0">
        <route edges="bottom0A0 A0top0"/>
    </vehicle>
    <vehicle id="left0A0_0.12" type="type1" depart="105.00" departLane="0">
        <route edges="left0A0 A0right0"/>
    </vehicle>
    <vehicle id="right0A0_1.3" type="type1" depart="108.00" departLane="1">
        <route edges="right0A0 A0left0"/>
    </vehicle>
    <vehicle id="bottom0A0_0.9" type="type1" depart="111.00" departLane="0">
        <route edges="bottom0A0 A0top0"/>
    </vehicle>
    <vehicle id="bottom0A0_1.5" type="type1" depart="112.00" departLane="1">
        <route edges="bottom0A0 A0top0"/>
    </vehicle>
    <vehicle id="left0A0_0.13" type="type1" depart="116.00" departLane="0">
        <route edges="left0A0 A0right0"/>
    </vehicle>
    <vehicle id="left0A0_0.14" type="type1" depart="117.00" departLane="0">
        <route edges="left0A0 A0right0"/>
    </vehicle>
    <vehicle id="left0A0_0.15" type="type1" depart="125.00" departLane="0">
        <route edges="left0A0 A0right0"/>
    </vehicle>
    <vehicle id="left0A0_1.14" type="type1" depart="130.00" departLane="1">
        <route edges="left0A0 A0right0"/>
    </vehicle>
    <vehicle id="bottom0A0_0.10" type="type1" depart="134.00" departLane="0">
        <route edges="bottom0A0 A0top0"/>
    </vehicle>
    <vehicle id="top0A0_1.4" type="type1" depart="136.00" departLane="1">
        <route edges="top0A0 A0bottom0"/>
    </vehicle>
    <vehicle id="right0A0_0.4" type="type1" depart="137.00" departLane="0">
        <route edges="right0A0 A0left0"/>
    </vehicle>
    <vehicle id="bottom0A0_0.11" type="type1" depart="140.00" departLane="0">
        <route edges="bottom0A0 A0top0"/>
    </vehicle>
    <vehicle id="right0A0_0.5" type="type1" depart="143.00" departLane="0">
        <route edges="right0A0 A0left0"/>
    </vehicle>
    <vehicle id="top0A0_0.7" type="type1" depart="143.00" departLane="0">
        <route edges="top0A0 A0bottom0"/>
    </vehicle>
    <vehicle id="top0A0_1.5" type="type1" depart="147.00" departLane="1">
        <route edges="top0A0 A0bottom0"/>
    </vehicle>
    <vehicle id="right0A0_0.6" type="type1" depart="148.00" departLane="0">
        <route edges="right0A0 A0left0"/>
    </vehicle>
    <vehicle id="right0A0_1.4" type="type1" depart="148.00" departLane="1">
        <route edges="right0A0 A0left0"/>
    </vehicle>
    <vehicle id="left0A0_0.16" type="type1" depart="153.00" departLane="0">
        <route edges="left0A0 A0right0"/>
    </vehicle>
    <vehicle id="left0A0_0.17" type="type1" depart="155.00" departLane="0">
        <route edges="left0A0 A0right0"/>
    </vehicle>
    <vehicle id="top0A0_1.6" type="type1" depart="155.00" departLane="1">
        <route edges="top0A0 A0bottom0"/>
    </vehicle>
    <vehicle id="left0A0_0.18" type="type1" depart="159.00" departLane="0">
        <route edges="left0A0 A0right0"/>
    </vehicle>
    <vehicle id="left0A0_1.15" type="type1" depart="160.00" departLane="1">
        <route edges="left0A0 A0right0"/>
    </vehicle>
    <vehicle id="left0A0_1.16" type="type1" depart="161.00" departLane="1">
        <route edges="left0A0 A0right0"/>
    </vehicle>
    <vehicle id="right0A0_0.7" type="type1" depart="165.00" departLane="0">
        <route edges="right0A0 A0left0"/>
    </vehicle>
    <vehicle id="left0A0_0.19" type="type1" depart="168.00" departLane="0">
        <route edges="left0A0 A0right0"/>
    </vehicle>
    <vehicle id="right0A0_0.8" type="type1" depart="168.00" departLane="0">
        <route edges="right0A0 A0left0"/>
    </vehicle>
    <vehicle id="right0A0_1.5" type="type1" depart="171.00" departLane="1">
        <route edges="right0A0 A0left0"/>
    </vehicle>
    <vehicle id="left0A0_0.20" type="type1" depart="173.00" departLane="0">
        <route edges="left0A0 A0right0"/>
    </vehicle>
    <vehicle id="left0A0_1.17" type="type1" depart="173.00" departLane="1">
        <route edges="left0A0 A0right0"/>
    </vehicle>
    <vehicle id="bottom0A0_0.12" type="type1" depart="175.00" departLane="0">
        <route edges="bottom0A0 A0top0"/>
    </vehicle>
    <vehicle id="bottom0A0_0.13" type="type1" depart="178.00" departLane="0">
        <route edges="bottom0A0 A0top0"/>
    </vehicle>
    <vehicle id="left0A0_0.21" type="type1" depart="178.00" departLane="0">
        <route edges="left0A0 A0right0"/>
    </vehicle>
    <vehicle id="left0A0_1.18" type="type1" depart="180.00" departLane="1">
        <route edges="left0A0 A0right0"/>
    </vehicle>
    <vehicle id="top0A0_1.7" type="type1" depart="180.00" departLane="1">
        <route edges="top0A0 A0bottom0"/>
    </vehicle>
    <vehicle id="bottom0A0_1.6" type="type1" depart="181.00" departLane="1">
        <route edges="bottom0A0 A0top0"/>
    </vehicle>
    <vehicle id="left0A0_1.19" type="type1" depart="181.00" departLane="1">
        <route edges="left0A0 A0right0"/>
    </vehicle>
    <vehicle id="left0A0_0.22" type="type1" depart="182.00" departLane="0">
        <route edges="left0A0 A0right0"/>
    </vehicle>
    <vehicle id="left0A0_0.23" type="type1" depart="184.00" departLane="0">
        <route edges="left0A0 A0right0"/>
    </vehicle>
    <vehicle id="left0A0_1.20" type="type1" depart="187.00" departLane="1">
        <route edges="left0A0 A0right0"/>
    </vehicle>
    <vehicle id="right0A0_1.6" type="type1" depart="188.00" departLane="1">
        <route edges="right0A0 A0left0"/>
    </vehicle>
    <vehicle id="left0A0_0.24" type="type1" depart="189.00" departLane="0">
        <route edges="left0A0 A0right0"/>
    </vehicle>
    <vehicle id="left0A0_1.21" type="type1" depart="189.00" departLane="1">
        <route edges="left0A0 A0right0"/>
    </vehicle>
    <vehicle id="left0A0_0.25" type="type1" depart="193.00" departLane="0">
        <route edges="left0A0 A0right0"/>
    </vehicle>
    <vehicle id="bottom0A0_0.14" type="type1" depart="194.00" departLane="0">
        <route edges="bottom0A0 A0top0"/>
    </vehicle>
    <vehicle id="bottom0A0_0.15" type="type1" depart="197.00" departLane="0">
        <route edges="bottom0A0 A0top0"/>
    </vehicle>
    <vehicle id="left0A0_0.26" type="type1" depart="199.00" departLane="0">
        <route edges="left0A0 A0right0"/>
    </vehicle>
    <vehicle id="bottom0A0_1.7" type="type1" depart="200.00" departLane="1">
        <route edges="bottom0A0 A0top0"/>
    </vehicle>
    <vehicle id="left0A0_0.27" type="type1" depart="201.00" departLane="0">
        <route edges="left0A0 A0right0"/>
    </vehicle>
    <vehicle id="left0A0_1.22" type="type1" depart="202.00" departLane="1">
        <route edges="left0A0 A0right0"/>
    </vehicle>
    <vehicle id="top0A0_1.8" type="type1" depart="202.00" departLane="1">
        <route edges="top0A0 A0bottom0"/>
    </vehicle>
    <vehicle id="bottom0A0_1.8" type="type1" depart="203.00" departLane="1">
        <route edges="bottom0A0 A0top0"/>
    </vehicle>
    <vehicle id="left0A0_1.23" type="type1" depart="203.00" departLane="1">
        <route edges="left0A0 A0right0"/>
    </vehicle>
    <vehicle id="bottom0A0_1.9" type="type1" depart="204.00" departLane="1">
        <route edges="bottom0A0 A0top0"/>
    </vehicle>
    <vehicle id="left0A0_1.24" type="type1" depart="206.00" departLane="1">
        <route edges="left0A0 A0right0"/>
    </vehicle>
    <vehicle id="left0A0_0.28" type="type1" depart="207.00" departLane="0">
        <route edges="left0A0 A0right0"/>
    </vehicle>
    <vehicle id="left0A0_0.29" type="type1" depart="212.00" departLane="0">
        <route edges="left0A0 A0right0"/>
    </vehicle>
    <vehicle id="right0A0_0.9" type="type1" depart="212.00" departLane="0">
        <route edges="right0A0 A0left0"/>
    </vehicle>
    <vehicle id="left0A0_1.25" type="type1" depart="216.00" departLane="1">
        <route edges="left0A0 A0right0"/>
    </vehicle>
    <vehicle id="bottom0A0_1.10" type="type1" depart="217.00" departLane="1">
        <route edges="bottom0A0 A0top0"/>
    </vehicle>
    <vehicle id="left0A0_1.26" type="type1" depart="217.00" departLane="1">
        <route edges="left0A0 A0right0"/>
    </vehicle>
    <vehicle id="top0A0_1.9" type="type1" depart="218.00" departLane="1">
        <route edges="top0A0 A0bottom0"/>
    </vehicle>
    <vehicle id="left0A0_1.27" type="type1" depart="219.00" departLane="1">
        <route edges="left0A0 A0right0"/>
    </vehicle>
    <vehicle id="left0A0_0.30" type="type1" depart="221.00" departLane="0">
        <route edges="left0A0 A0right0"/>
    </vehicle>
    <vehicle id="left0A0_0.31" type="type1" depart="226.00" departLane="0">
        <route edges="left0A0 A0right0"/>
    </vehicle>
    <vehicle id="left0A0_1.28" type="type1" depart="233.00" departLane="1">
        <route edges="left0A0 A0right0"/>
    </vehicle>
    <vehicle id="right0A0_1.7" type="type1" depart="234.00" departLane="1">
        <route edges="right0A0 A0left0"/>
    </vehicle>
    <vehicle id="bottom0A0_0.16" type="type1" depart="236.00" departLane="0">
        <route edges="bottom0A0 A0top0"/>
    </vehicle>
    <vehicle id="left0A0_0.32" type="type1" depart="238.00" departLane="0">
        <route edges="left0A0 A0right0"/>
    </vehicle>
    <vehicle id="bottom0A0_1.11" type="type1" depart="239.00" departLane="1">
        <route edges="bottom0A0 A0top0"/>
    </vehicle>
    <vehicle id="left0A0_1.29" type="type1" depart="241.00" departLane="1">
        <route edges="left0A0 A0right0"/>
    </vehicle>
    <vehicle id="bottom0A0_1.12" type="type1" depart="245.00" departLane="1">
        <route edges="bottom0A0 A0top0"/>
    </vehicle>
    <vehicle id="right0A0_1.8" type="type1" depart="245.00" departLane="1">
        <route edges="right0A0 A0left0"/>
    </vehicle>
    <vehicle id="left0A0_0.33" type="type1" depart="248.00" departLane="0">
        <route edges="left0A0 A0right0"/>
    </vehicle>
    <vehicle id="bottom0A0_1.13" type="type1" depart="252.00" departLane="1">
        <route edges="bottom0A0 A0top0"/>
    </vehicle>
    <vehicle id="left0A0_0.34" type="type1" depart="256.00" departLane="0">
        <route edges="left0A0 A0right0"/>
    </vehicle>
    <vehicle id="top0A0_1.10" type="type1" depart="257.00" departLane="1">
        <route edges="top0A0 A0bottom0"/>
    </vehicle>
    <vehicle id="top0A0_0.8" type="type1" depart="258.00" departLane="0">
        <route edges="top0A0 A0bottom0"/>
    </vehicle>
    <vehicle id="bottom0A0_1.14" type="type1" depart="259.00" departLane="1">
        <route edges="bottom0A0 A0top0"/>
    </vehicle>
    <vehicle id="left0A0_0.35" type="type1" depart="259.00" departLane="0">
        <route edges="left0A0 A0right0"/>
    </vehicle>
    <vehicle id="bottom0A0_0.17" type="type1" depart="265.00" departLane="0">
        <route edges="bottom0A0 A0top0"/>
    </vehicle>
    <vehicle id="left0A0_0.36" type="type1" depart="265.00" departLane="0">
        <route edges="left0A0 A0right0"/>
    </vehicle>
    <vehicle id="left0A0_1.30" type="type1" depart="265.00" departLane="1">
        <route edges="left0A0 A0right0"/>
    </vehicle>
    <vehicle id="bottom0A0_0.18" type="type1" depart="266.00" departLane="0">
        <route edges="bottom0A0 A0top0"/>
    </vehicle>
    <vehicle id="left0A0_0.37" type="type1" depart="268.00" departLane="0">
        <route edges="left0A0 A0right0"/>
    </vehicle>
    <vehicle id="right0A0_0.10" type="type1" depart="268.00" departLane="0">
        <route edges="right0A0 A0left0"/>
    </vehicle>
    <vehicle id="left0A0_0.38" type="type1" depart="269.00" departLane="0">
        <route edges="left0A0 A0right0"/>
    </vehicle>
    <vehicle id="top0A0_1.11" type="type1" depart="270.00" departLane="1">
        <route edges="top0A0 A0bottom0"/>
    </vehicle>
    <vehicle id="bottom0A0_0.19" type="type1" depart="271.00" departLane="0">
        <route edges="bottom0A0 A0top0"/>
    </vehicle>
    <vehicle id="right0A0_0.11" type="type1" depart="278.00" departLane="0">
        <route edges="right0A0 A0left0"/>
    </vehicle>
    <vehicle id="bottom0A0_0.20" type="type1" depart="280.00" departLane="0">
        <route edges="bottom0A0 A0top0"/>
    </vehicle>
    <vehicle id="left0A0_1.31" type="type1" depart="281.00" departLane="1">
        <route edges="left0A0 A0right0"/>
    </vehicle>
    <vehicle id="bottom0A0_1.15" type="type1" depart="286.00" departLane="1">
        <route edges="bottom0A0 A0top0"/>
    </vehicle>
    <vehicle id="left0A0_0.39" type="type1" depart="286.00" departLane="0">
        <route edges="left0A0 A0right0"/>
    </vehicle>
    <vehicle id="left0A0_0.40" type="type1" depart="290.00" departLane="0">
        <route edges="left0A0 A0right0"/>
    </vehicle>
    <vehicle id="bottom0A0_0.21" type="type1" depart="292.00" departLane="0">
        <route edges="bottom0A0 A0top0"/>
    </vehicle>
    <vehicle id="left0A0_1.32" type="type1" depart="293.00" departLane="1">
        <route edges="left0A0 A0right0"/>
    </vehicle>
    <vehicle id="bottom0A0_0.22" type="type1" depart="296.00" departLane="0">
        <route edges="bottom0A0 A0top0"/>
    </vehicle>
    <vehicle id="left0A0_1.33" type="type1" depart="297.00" departLane="1">
        <route edges="left0A0 A0right0"/>
    </vehicle>
    <vehicle id="left0A0_0.41" type="type1" depart="299.00" departLane="0">
        <route edges="left0A0 A0right0"/>
    </vehicle>
    <vehicle id="bottom0A0_1.16" type="type1" depart="300.00" departLane="1">
        <route edges="bottom0A0 A0top0"/>
    </vehicle>
    <vehicle id="bottom0A0_1.17" type="type1" depart="302.00" departLane="1">
        <route edges="bottom0A0 A0top0"/>
    </vehicle>
    <vehicle id="left0A0_1.34" type="type1" depart="303.00" departLane="1">
        <route edges="left0A0 A0right0"/>
    </vehicle>
    <vehicle id="left0A0_1.35" type="type1" depart="304.00" departLane="1">
        <route edges="left0A0 A0right0"/>
    </vehicle>
    <vehicle id="right0A0_0.12" type="type1" depart="307.00" departLane="0">
        <route edges="right0A0 A0left0"/>
    </vehicle>
    <vehicle id="top0A0_0.9" type="type1" depart="311.00" departLane="0">
        <route edges="top0A0 A0bottom0"/>
    </vehicle>
    <vehicle id="right0A0_0.13" type="type1" depart="315.00" departLane="0">
        <route edges="right0A0 A0left0"/>
    </vehicle>
    <vehicle id="bottom0A0_0.23" type="type1" depart="317.00" departLane="0">
        <route edges="bottom0A0 A0top0"/>
    </vehicle>
    <vehicle id="left0A0_0.42" type="type1" depart="317.00" departLane="0">
        <route edges="left0A0 A0right0"/>
    </vehicle>
    <vehicle id="left0A0_1.36" type="type1" depart="323.00" departLane="1">
        <route edges="left0A0 A0right0"/>
    </vehicle>
    <vehicle id="bottom0A0_0.24" type="type1" depart="324.00" departLane="0">
        <route edges="bottom0A0 A0top0"/>
    </vehicle>
    <vehicle id="bottom0A0_1.18" type="type1" depart="324.00" departLane="1">
        <route edges="bottom0A0 A0top0"/>
    </vehicle>
    <vehicle id="bottom0A0_0.25" type="type1" depart="327.00" departLane="0">
        <route edges="bottom0A0 A0top0"/>
    </vehicle>
    <vehicle id="left0A0_0.43" type="type1" depart="332.00" departLane="0">
        <route edges="left0A0 A0right0"/>
    </vehicle>
    <vehicle id="left0A0_0.44" type="type1" depart="333.00" departLane="0">
        <route edges="left0A0 A0right0"/>
    </vehicle>
    <vehicle id="right0A0_0.14" type="type1" depart="336.00" departLane="0">
        <route edges="right0A0 A0left0"/>
    </vehicle>
    <vehicle id="left0A0_1.37" type="type1" depart="341.00" departLane="1">
        <route edges="left0A0 A0right0"/>
    </vehicle>
    <vehicle id="left0A0_1.38" type="type1" depart="343.00" departLane="1">
        <route edges="left0A0 A0right0"/>
    </vehicle>
    <vehicle id="left0A0_0.45" type="type1" depart="345.00" departLane="0">
        <route edges="left0A0 A0right0"/>
    </vehicle>
    <vehicle id="right0A0_1.9" type="type1" depart="345.00" departLane="1">
        <route edges="right0A0 A0left0"/>
    </vehicle>
    <vehicle id="left0A0_0.46" type="type1" depart="348.00" departLane="0">
        <route edges="left0A0 A0right0"/>
    </vehicle>
    <vehicle id="bottom0A0_0.26" type="type1" depart="349.00" departLane="0">
        <route edges="bottom0A0 A0top0"/>
    </vehicle>
    <vehicle id="top0A0_1.12" type="type1" depart="363.00" departLane="1">
        <route edges="top0A0 A0bottom0"/>
    </vehicle>
    <vehicle id="right0A0_1.10" type="type1" depart="364.00" departLane="1">
        <route edges="right0A0 A0left0"/>
    </vehicle>
    <vehicle id="left0A0_1.39" type="type1" depart="369.00" departLane="1">
        <route edges="left0A0 A0right0"/>
    </vehicle>
    <vehicle id="top0A0_0.10" type="type1" depart="374.00" departLane="0">
        <route edges="top0A0 A0bottom0"/>
    </vehicle>
    <vehicle id="bottom0A0_0.27" type="type1" depart="377.00" departLane="0">
        <route edges="bottom0A0 A0top0"/>
    </vehicle>
    <vehicle id="top0A0_0.11" type="type1" depart="377.00" departLane="0">
        <route edges="top0A0 A0bottom0"/>
    </vehicle>
    <vehicle id="bottom0A0_1.19" type="type1" depart="378.00" departLane="1">
        <route edges="bottom0A0 A0top0"/>
    </vehicle>
    <vehicle id="bottom0A0_0.28" type="type1" depart="379.00" departLane="0">
        <route edges="bottom0A0 A0top0"/>
    </vehicle>
    <vehicle id="left0A0_0.47" type="type1" depart="379.00" departLane="0">
        <route edges="left0A0 A0right0"/>
    </vehicle>
    <vehicle id="left0A0_0.48" type="type1" depart="380.00" departLane="0">
        <route edges="left0A0 A0right0"/>
    </vehicle>
    <vehicle id="left0A0_1.40" type="type1" depart="383.00" departLane="1">
        <route edges="left0A0 A0right0"/>
    </vehicle>
    <vehicle id="bottom0A0_1.20" type="type1" depart="384.00" departLane="1">
        <route edges="bottom0A0 A0top0"/>
    </vehicle>
    <vehicle id="bottom0A0_1.21" type="type1" depart="385.00" departLane="1">
        <route edges="bottom0A0 A0top0"/>
    </vehicle>
    <vehicle id="top0A0_0.12" type="type1" depart="387.00" departLane="0">
        <route edges="top0A0 A0bottom0"/>
    </vehicle>
    <vehicle id="bottom0A0_1.22" type="type1" depart="389.00" departLane="1">
        <route edges="bottom0A0 A0top0"/>
    </vehicle>
    <vehicle id="left0A0_1.41" type="type1" depart="389.00" departLane="1">
        <route edges="left0A0 A0right0"/>
    </vehicle>
    <vehicle id="left0A0_0.49" type="type1" depart="390.00" departLane="0">
        <route edges="left0A0 A0right0"/>
    </vehicle>
    <vehicle id="left0A0_0.50" type="type1" depart="393.00" departLane="0">
        <route edges="left0A0 A0right0"/>
    </vehicle>
    <vehicle id="bottom0A0_0.29" type="type1" depart="394.00" departLane="0">
        <route edges="bottom0A0 A0top0"/>
    </vehicle>
    <vehicle id="right0A0_1.11" type="type1" depart="394.00" departLane="1">
        <route edges="right0A0 A0left0"/>
    </vehicle>
    <vehicle id="left0A0_0.51" type="type1" depart="395.00" departLane="0">
        <route edges="left0A0 A0right0"/>
    </vehicle>
    <vehicle id="left0A0_0.52" type="type1" depart="397.00" departLane="0">
        <route edges="left0A0 A0right0"/>
    </vehicle>
    <vehicle id="left0A0_0.53" type="type1" depart="398.00" departLane="0">
        <route edges="left0A0 A0right0"/>
    </vehicle>
    <vehicle id="left0A0_0.54" type="type1" depart="400.00" departLane="0">
        <route edges="left0A0 A0right0"/>
    </vehicle>
    <vehicle id="bottom0A0_0.30" type="type1" depart="405.00" departLane="0">
        <route edges="bottom0A0 A0top0"/>
    </vehicle>
    <vehicle id="left0A0_0.55" type="type1" depart="407.00" departLane="0">
        <route edges="left0A0 A0right0"/>
    </vehicle>
    <vehicle id="top0A0_1.13" type="type1" depart="407.00" departLane="1">
        <route edges="top0A0 A0bottom0"/>
    </vehicle>
    <vehicle id="left0A0_1.42" type="type1" depart="408.00" departLane="1">
        <route edges="left0A0 A0right0"/>
    </vehicle>
    <vehicle id="left0A0_0.56" type="type1" depart="410.00" departLane="0">
        <route edges="left0A0 A0right0"/>
    </vehicle>
    <vehicle id="left0A0_0.57" type="type1" depart="411.00" departLane="0">
        <route edges="left0A0 A0right0"/>
    </vehicle>
    <vehicle id="left0A0_1.43" type="type1" depart="412.00" departLane="1">
        <route edges="left0A0 A0right0"/>
    </vehicle>
    <vehicle id="bottom0A0_1.23" type="type1" depart="414.00" departLane="1">
        <route edges="bottom0A0 A0top0"/>
    </vehicle>
    <vehicle id="left0A0_0.58" type="type1" depart="415.00" departLane="0">
        <route edges="left0A0 A0right0"/>
    </vehicle>
    <vehicle id="bottom0A0_0.31" type="type1" depart="418.00" departLane="0">
        <route edges="bottom0A0 A0top0"/>
    </vehicle>
    <vehicle id="top0A0_0.13" type="type1" depart="418.00" departLane="0">
        <route edges="top0A0 A0bottom0"/>
    </vehicle>
    <vehicle id="left0A0_0.59" type="type1" depart="420.00" departLane="0">
        <route edges="left0A0 A0right0"/>
    </vehicle>
    <vehicle id="left0A0_1.44" type="type1" depart="421.00" departLane="1">
        <route edges="left0A0 A0right0"/>
    </vehicle>